me hago viejo 
y se me borro el primer archivo espero pueda recuperarlo

Let´s go, we´ll be the best

tengo que esforzarme


haciendo nuevas pruebas en este mundo de la programación

new line.
proff of mixed.

proff comands of VIM.
